
  EPA STORM WATER MANAGEMENT MODEL - VERSION 5.0 (Build 5.0.022)
  --------------------------------------------------------------

  
  *********************************************************
  NOTE: The summary statistics displayed in this report are
  based on results found at every computational time step,  
  not just on results from each reporting time step.
  *********************************************************
  
  ****************
  Analysis Options
  ****************
  Flow Units ............... LPS
  Process Models:
    Rainfall/Runoff ........ YES
    Snowmelt ............... NO
    Groundwater ............ NO
    Flow Routing ........... YES
    Ponding Allowed ........ NO
    Water Quality .......... NO
  Infiltration Method ...... CURVE_NUMBER
  Flow Routing Method ...... DYNWAVE
  Starting Date ............ OCT-28-2011 00:00:00
  Ending Date .............. OCT-28-2011 06:00:00
  Antecedent Dry Days ...... 0.0
  Report Time Step ......... 00:01:00
  Wet Time Step ............ 00:01:00
  Dry Time Step ............ 00:01:00
  Routing Time Step ........ 1.00 sec
  
  
  **************************        Volume         Depth
  Runoff Quantity Continuity     hectare-m            mm
  **************************     ---------       -------
  Total Precipitation ......         5.782        48.180
  Evaporation Loss .........         0.000         0.000
  Infiltration Loss ........         2.902        24.187
  Surface Runoff ...........         2.297        19.140
  Final Surface Storage ....         0.583         4.861
  Continuity Error (%) .....        -0.015
  
  
  **************************        Volume        Volume
  Flow Routing Continuity        hectare-m      10^6 ltr
  **************************     ---------     ---------
  Dry Weather Inflow .......         0.000         0.000
  Wet Weather Inflow .......         2.294        22.944
  Groundwater Inflow .......         0.000         0.000
  RDII Inflow ..............         0.000         0.000
  External Inflow ..........         0.000         0.000
  External Outflow .........         0.457         4.569
  Internal Outflow .........         0.000         0.000
  Storage Losses ...........         0.000         0.000
  Initial Stored Volume ....         0.000         0.000
  Final Stored Volume ......         1.839        18.387
  Continuity Error (%) .....        -0.054
  
  
  ***************************
  Time-Step Critical Elements
  ***************************
  None
  
  
  ********************************
  Highest Flow Instability Indexes
  ********************************
  All links are stable.
  
  
  *************************
  Routing Time Step Summary
  *************************
  Minimum Time Step           :     1.00 sec
  Average Time Step           :     1.00 sec
  Maximum Time Step           :     1.00 sec
  Percent in Steady State     :     0.00
  Average Iterations per Step :     2.00
  
  
  ***************************
  Subcatchment Runoff Summary
  ***************************
  
  --------------------------------------------------------------------------------------------------------
                            Total      Total      Total      Total      Total       Total     Peak  Runoff
                           Precip      Runon       Evap      Infil     Runoff      Runoff   Runoff   Coeff
  Subcatchment                 mm         mm         mm         mm         mm    10^6 ltr      LPS
  --------------------------------------------------------------------------------------------------------
  E1                        48.18       0.00       0.00      24.19      19.14       22.97  2881.92   0.397
  
  
  ******************
  Node Depth Summary
  ******************
  
  ---------------------------------------------------------------------
                                 Average  Maximum  Maximum  Time of Max
                                   Depth    Depth      HGL   Occurrence
  Node                 Type       Meters   Meters   Meters  days hr:min
  ---------------------------------------------------------------------
  J12                  JUNCTION     0.14     0.21    15.86     0  05:20
  1                    OUTFALL      0.14     0.21     0.21     0  05:20
  J8                   STORAGE      0.12     0.18    23.64     0  05:19
  
  
  *******************
  Node Inflow Summary
  *******************
  
  -------------------------------------------------------------------------------------
                                  Maximum  Maximum                  Lateral       Total
                                  Lateral    Total  Time of Max      Inflow      Inflow
                                   Inflow   Inflow   Occurrence      Volume      Volume
  Node                 Type           LPS      LPS  days hr:min    10^6 ltr    10^6 ltr
  -------------------------------------------------------------------------------------
  J12                  JUNCTION      0.00   350.21     0  05:19       0.000       4.596
  1                    OUTFALL       0.00   350.21     0  05:20       0.000       4.569
  J8                   STORAGE    2881.92  2881.92     0  01:33      22.944      22.943
  
  
  **********************
  Node Surcharge Summary
  **********************
  
  No nodes were surcharged.
  
  
  *********************
  Node Flooding Summary
  *********************
  
  No nodes were flooded.
  
  
  **********************
  Storage Volume Summary
  **********************
  
  --------------------------------------------------------------------------------------------
                         Average     Avg   E&I       Maximum     Max    Time of Max    Maximum
                          Volume    Pcnt  Pcnt        Volume    Pcnt     Occurrence    Outflow
  Storage Unit           1000 m3    Full  Loss       1000 m3    Full    days hr:min        LPS
  --------------------------------------------------------------------------------------------
  J8                      11.910      64     0        18.431      99       0  05:19     350.21
  
  
  ***********************
  Outfall Loading Summary
  ***********************
  
  -----------------------------------------------------------
                        Flow       Avg.      Max.       Total
                        Freq.      Flow      Flow      Volume
  Outfall Node          Pcnt.       LPS       LPS    10^6 ltr
  -----------------------------------------------------------
  1                     85.53    247.31    350.21       4.569
  -----------------------------------------------------------
  System                85.53    247.31    350.21       4.569
  
  
  ********************
  Link Flow Summary
  ********************
  
  -----------------------------------------------------------------------------
                                 Maximum  Time of Max   Maximum    Max/    Max/
                                  |Flow|   Occurrence   |Veloc|    Full    Full
  Link                 Type          LPS  days hr:min     m/sec    Flow   Depth
  -----------------------------------------------------------------------------
  T5                   CONDUIT    350.21     0  05:19      3.91    1.24    0.97
  1                    CONDUIT    350.21     0  05:20      4.54    0.36    0.42
  
  
  ***************************
  Flow Classification Summary
  ***************************
  
  -----------------------------------------------------------------------------------------
                      Adjusted    --- Fraction of Time in Flow Class ----   Avg.     Avg.  
                       /Actual         Up    Down  Sub   Sup   Up    Down   Froude   Flow  
  Conduit               Length    Dry  Dry   Dry   Crit  Crit  Crit  Crit   Number   Change
  -----------------------------------------------------------------------------------------
  T5                      1.00   0.05  0.00  0.00  0.00  0.95  0.00  0.00     2.48   0.0001
  1                       1.00   0.09  0.00  0.00  0.03  0.88  0.00  0.00     3.14   0.0000
  
  
  *************************
  Conduit Surcharge Summary
  *************************
  
  ----------------------------------------------------------------------------
                                                           Hours        Hours 
                         --------- Hours Full --------   Above Full   Capacity
  Conduit                Both Ends  Upstream  Dnstream   Normal Flow   Limited
  ----------------------------------------------------------------------------
  T5                          0.01      0.01      0.01      2.96         0.01
  

  Analysis begun on:  Tue Dec 25 23:07:03 2012
  Analysis ended on:  Tue Dec 25 23:07:05 2012
  Total elapsed time: 00:00:02