
  EPA STORM WATER MANAGEMENT MODEL - VERSION 5.0 (Build 5.0.022)
  --------------------------------------------------------------

  
  *********************************************************
  NOTE: The summary statistics displayed in this report are
  based on results found at every computational time step,  
  not just on results from each reporting time step.
  *********************************************************
  
  ****************
  Analysis Options
  ****************
  Flow Units ............... LPS
  Process Models:
    Rainfall/Runoff ........ YES
    Snowmelt ............... NO
    Groundwater ............ NO
    Flow Routing ........... YES
    Ponding Allowed ........ NO
    Water Quality .......... NO
  Infiltration Method ...... CURVE_NUMBER
  Flow Routing Method ...... DYNWAVE
  Starting Date ............ OCT-28-2011 00:00:00
  Ending Date .............. OCT-28-2011 06:00:00
  Antecedent Dry Days ...... 0.0
  Report Time Step ......... 00:01:00
  Wet Time Step ............ 00:01:00
  Dry Time Step ............ 00:01:00
  Routing Time Step ........ 1.00 sec
  

  WARNING 02: maximum depth increased for Node J5

  WARNING 02: maximum depth increased for Node J6
  
  **************************        Volume         Depth
  Runoff Quantity Continuity     hectare-m            mm
  **************************     ---------       -------
  Total Precipitation ......        13.095        48.180
  Evaporation Loss .........         0.000         0.000
  Infiltration Loss ........         4.624        17.013
  Surface Runoff ...........         8.283        30.476
  Final Surface Storage ....         0.189         0.697
  Continuity Error (%) .....        -0.012
  
  
  **************************        Volume        Volume
  Flow Routing Continuity        hectare-m      10^6 ltr
  **************************     ---------     ---------
  Dry Weather Inflow .......         0.000         0.000
  Wet Weather Inflow .......         8.282        82.826
  Groundwater Inflow .......         0.000         0.000
  RDII Inflow ..............         0.000         0.000
  External Inflow ..........         0.000         0.000
  External Outflow .........         0.311         3.109
  Internal Outflow .........         0.000         0.000
  Storage Losses ...........         0.000         0.000
  Initial Stored Volume ....         0.000         0.000
  Final Stored Volume ......         7.978        79.776
  Continuity Error (%) .....        -0.071
  
  
  *************************
  Highest Continuity Errors
  *************************
  Node J7 (5.15%)
  Node J3 (1.44%)
  
  
  ***************************
  Time-Step Critical Elements
  ***************************
  None
  
  
  ********************************
  Highest Flow Instability Indexes
  ********************************
  All links are stable.
  
  
  *************************
  Routing Time Step Summary
  *************************
  Minimum Time Step           :     1.00 sec
  Average Time Step           :     1.00 sec
  Maximum Time Step           :     1.00 sec
  Percent in Steady State     :     0.00
  Average Iterations per Step :     2.00
  
  
  ***************************
  Subcatchment Runoff Summary
  ***************************
  
  --------------------------------------------------------------------------------------------------------
                            Total      Total      Total      Total      Total       Total     Peak  Runoff
                           Precip      Runon       Evap      Infil     Runoff      Runoff   Runoff   Coeff
  Subcatchment                 mm         mm         mm         mm         mm    10^6 ltr      LPS
  --------------------------------------------------------------------------------------------------------
  A2                        48.18       0.00       0.00      12.73      34.67       33.60 11933.17   0.720
  A1                        48.18       0.00       0.00      13.87      33.80       11.42  4277.90   0.702
  A3                        48.18       0.00       0.00      13.75      33.78       17.13  6140.49   0.701
  A4                        48.18       0.00       0.00      14.58      33.08        9.93  3578.10   0.687
  A5                        48.18       0.00       0.00      17.57      29.99        7.65  2208.10   0.622
  E1                        48.18       0.00       0.00      38.39       8.92        3.11   603.40   0.185
  
  
  ******************
  Node Depth Summary
  ******************
  
  ---------------------------------------------------------------------
                                 Average  Maximum  Maximum  Time of Max
                                   Depth    Depth      HGL   Occurrence
  Node                 Type       Meters   Meters   Meters  days hr:min
  ---------------------------------------------------------------------
  J2                   JUNCTION     0.00     0.00    45.63     0  00:00
  J5                   JUNCTION     0.26     0.57    47.95     0  02:07
  J6                   JUNCTION     0.26     0.57    42.48     0  02:08
  J8                   JUNCTION     0.02     0.07    23.53     0  01:36
  J9                   JUNCTION     0.13     0.44    38.13     0  01:06
  J10                  JUNCTION     0.21     0.82    33.24     0  01:06
  J12                  OUTFALL      0.02     0.07    15.72     0  01:36
  J11                  STORAGE      0.86     1.16    28.32     0  06:00
  J3                   STORAGE      0.95     1.37    37.81     0  02:43
  J4                   STORAGE      1.08     1.54    54.40     0  02:06
  J1                   STORAGE      0.57     0.76    55.76     0  06:00
  J7                   STORAGE      0.40     0.98    30.57     0  06:00
  
  
  *******************
  Node Inflow Summary
  *******************
  
  -------------------------------------------------------------------------------------
                                  Maximum  Maximum                  Lateral       Total
                                  Lateral    Total  Time of Max      Inflow      Inflow
                                   Inflow   Inflow   Occurrence      Volume      Volume
  Node                 Type           LPS      LPS  days hr:min    10^6 ltr    10^6 ltr
  -------------------------------------------------------------------------------------
  J2                   JUNCTION      0.00     0.00     0  00:00       0.000       0.000
  J5                   JUNCTION      0.00  2401.46     0  02:06       0.000      16.173
  J6                   JUNCTION      0.00  2400.96     0  02:07       0.000      16.139
  J8                   JUNCTION    603.40   603.40     0  01:36       3.111       3.111
  J9                   JUNCTION   2207.30  2207.30     0  01:06       7.646       7.646
  J10                  JUNCTION   3577.23  5760.19     0  01:06       9.924      17.569
  J12                  OUTFALL       0.00   603.32     0  01:36       0.000       3.109
  J11                  STORAGE       0.00  5748.74     0  01:06       0.000      17.581
  J3                   STORAGE    6139.72  6139.72     0  01:05      17.124      33.218
  J4                   STORAGE   11930.76 11930.76     0  01:05      33.597      33.597
  J1                   STORAGE    4276.92  4276.92     0  01:03      11.423      11.423
  J7                   STORAGE       0.00  2241.10     0  02:56       0.000      15.569
  
  
  **********************
  Node Surcharge Summary
  **********************
  
  No nodes were surcharged.
  
  
  *********************
  Node Flooding Summary
  *********************
  
  No nodes were flooded.
  
  
  **********************
  Storage Volume Summary
  **********************
  
  --------------------------------------------------------------------------------------------
                         Average     Avg   E&I       Maximum     Max    Time of Max    Maximum
                          Volume    Pcnt  Pcnt        Volume    Pcnt     Occurrence    Outflow
  Storage Unit           1000 m3    Full  Loss       1000 m3    Full    days hr:min        LPS
  --------------------------------------------------------------------------------------------
  J11                     12.921      48     0        17.466      65       0  06:00       0.00
  J3                      14.186      53     0        20.614      76       0  02:43    2241.10
  J4                      16.230      60     0        23.162      86       0  02:06    2401.46
  J1                       8.602      32     0        11.423      42       0  06:00       0.00
  J7                       5.968      22     0        14.769      55       0  06:00       0.00
  
  
  ***********************
  Outfall Loading Summary
  ***********************
  
  -----------------------------------------------------------
                        Flow       Avg.      Max.       Total
                        Freq.      Flow      Flow      Volume
  Outfall Node          Pcnt.       LPS       LPS    10^6 ltr
  -----------------------------------------------------------
  J12                   91.75    156.85    603.32       3.109
  -----------------------------------------------------------
  System                91.75    156.85    603.32       3.109
  
  
  ********************
  Link Flow Summary
  ********************
  
  -----------------------------------------------------------------------------
                                 Maximum  Time of Max   Maximum    Max/    Max/
                                  |Flow|   Occurrence   |Veloc|    Full    Full
  Link                 Type          LPS  days hr:min     m/sec    Flow   Depth
  -----------------------------------------------------------------------------
  T4-1                 CONDUIT   2193.82     0  01:06      2.99    0.10    0.31
  T4-2                 CONDUIT   5748.74     0  01:06      8.94    0.27    0.34
  T4-3                 CONDUIT      0.00     0  00:00      0.00    0.00    0.02
  T1-1                 CONDUIT      0.00     0  00:00      0.00    0.00    0.00
  T1-2                 CONDUIT      0.00     0  00:00      0.00    0.00    0.50
  T2-1                 CONDUIT   2401.46     0  02:06      3.37    0.16    0.28
  T2-2                 CONDUIT   2400.96     0  02:07      3.27    0.18    0.28
  T2-3                 CONDUIT   2399.00     0  02:09      1.90    0.18    0.47
  T3-1                 CONDUIT   2241.10     0  02:56      3.37    0.12    0.38
  T3-2                 CONDUIT      0.00     0  00:00      0.00    0.00    0.02
  T5                   CONDUIT    603.32     0  01:36      2.95    0.06    0.17
  
  
  ***************************
  Flow Classification Summary
  ***************************
  
  -----------------------------------------------------------------------------------------
                      Adjusted    --- Fraction of Time in Flow Class ----   Avg.     Avg.  
                       /Actual         Up    Down  Sub   Sup   Up    Down   Froude   Flow  
  Conduit               Length    Dry  Dry   Dry   Crit  Crit  Crit  Crit   Number   Change
  -----------------------------------------------------------------------------------------
  T4-1                    1.00   0.01  0.00  0.00  0.12  0.87  0.00  0.00     1.34   0.0000
  T4-2                    1.00   0.01  0.00  0.00  0.68  0.31  0.00  0.00     1.24   0.0000
  T4-3                    1.00   0.06  0.94  0.00  0.00  0.00  0.00  0.00     0.00   0.0000
  T1-1                    1.00   1.00  0.00  0.00  0.00  0.00  0.00  0.00     0.00   0.0000
  T1-2                    1.00   0.01  0.99  0.00  0.00  0.00  0.00  0.00     0.00   0.0000
  T2-1                    1.00   0.22  0.00  0.00  0.00  0.78  0.00  0.00     1.29   0.0000
  T2-2                    1.00   0.22  0.00  0.00  0.00  0.78  0.00  0.00     1.24   0.0000
  T2-3                    1.00   0.01  0.20  0.00  0.78  0.00  0.00  0.00     0.26   0.0000
  T3-1                    1.00   0.32  0.00  0.00  0.45  0.23  0.00  0.00     0.68   0.0000
  T3-2                    1.00   0.06  0.94  0.00  0.00  0.00  0.00  0.00     0.00   0.0000
  T5                      1.00   0.06  0.00  0.00  0.00  0.94  0.00  0.00     2.65   0.0000
  
  
  *************************
  Conduit Surcharge Summary
  *************************
  
  No conduits were surcharged.
  

  Analysis begun on:  Thu Dec 27 11:13:47 2012
  Analysis ended on:  Thu Dec 27 11:13:48 2012
  Total elapsed time: 00:00:01